/*--------------------------------*- C++ -*----------------------------------*\
  =========                 |
  \\      /  F ield         | OpenFOAM: The Open Source CFD Toolbox
   \\    /   O peration     | Website:  https://openfoam.org
    \\  /    A nd           | Version:  6
     \\/     M anipulation  |
\*---------------------------------------------------------------------------*/
FoamFile
{
    version     2.0;
    format      ascii;
    class       dictionary;
    object      blockMeshDict;
}
// * * * * * * * * * * * * * * * * * * * * * * * * * * * * * * * * * * * * * //

convertToMeters 1;

vertices
(

    (0 0 0)
    (2 0 0)
    (2 1 0)
    (0 1 0)

    (0 0 0.1)
    (2 0 0.1)
    (2 1 0.1)
    (0 1 0.1)

);

blocks
(
    hex (0 1 2 3 4 5 6 7)
    (200 100 1)
    simpleGrading (1 1 1)

);

edges
(
);

boundary
(
    wall
    {
        type wall;

        faces
        (
            (0 4 7 3)
            (1 5 6 2)
            (3 2 6 7)
        );
    }

   frontAndBack
    {
        type empty;
        faces
        (
            (0 1 2 3)
            (7 6 5 4)
        );
    }
   bottom
   {
       type wall;
       faces
       (
        (0 4 5 1)
       );
   }

);

// ************************************************************************* //
