/*--------------------------------*- C++ -*----------------------------------*\
  =========                 |
  \\      /  F ield         | OpenFOAM: The Open Source CFD Toolbox
   \\    /   O peration     | Website:  https://openfoam.org
    \\  /    A nd           | Version:  6
     \\/     M anipulation  |
\*---------------------------------------------------------------------------*/
FoamFile
{
    version     2.0;
    format      ascii;
    class       dictionary;
    location    "system";
    object      fvSolution;
}
// * * * * * * * * * * * * * * * * * * * * * * * * * * * * * * * * * * * * * //

solvers
{
    T
    {
        solver          PBiCGStab;
        preconditioner  FDIC;
        tolerance       1e-12;
        relTol          0;
    }
}

SIMPLE
{
    nNonOrthogonalCorrectors 0;
    residualControl
    {
        T 1e-8;
    }
}

relaxationFactors
{
    equations
    {
       T       1;
    }

    fields
    {
        T   1;
    }

}

// ************************************************************************* //
