/*--------------------------------*- C++ -*----------------------------------*\
  =========                 |
  \\      /  F ield         | OpenFOAM: The Open Source CFD Toolbox
   \\    /   O peration     | Website:  https://openfoam.org
    \\  /    A nd           | Version:  6
     \\/     M anipulation  |
\*---------------------------------------------------------------------------*/
FoamFile
{
    version     2.0;
    format      ascii;
    class       volScalarField;
    object      T;
}
// * * * * * * * * * * * * * * * * * * * * * * * * * * * * * * * * * * * * * //

#include "$FOAM_CASE/constant/initialConditions";

dimensions      [ 0 0 0 1 0 0 0 ];

internalField   uniform $Tinitial;

boundaryField
{
    wall
    {
        type            mapped;
        value           uniform $Tinitial;
        setAverage      false;
        average         0;
      /*
        type            fixedValue;
        value           $internalField;

      */
    }
}

// ************************************************************************* //
