/*--------------------------------*- C++ -*----------------------------------*\
  =========                 |
  \\      /  F ield         | OpenFOAM: The Open Source CFD Toolbox
   \\    /   O peration     | Website:  https://openfoam.org
    \\  /    A nd           | Version:  6
     \\/     M anipulation  |
\*---------------------------------------------------------------------------*/
FoamFile
{
    version     2.0;
    format      ascii;
    class       dictionary;
    object      controlDict;
}
// * * * * * * * * * * * * * * * * * * * * * * * * * * * * * * * * * * * * * //

application     pnpMultiFoam;

startFrom       latestTime;//startTime;

startTime       0;

stopAt          endTime;

endTime         0.1;//1e-2;

deltaT          1e-9;

writeControl    runTime;

writeInterval   1e-8; // CHANGE TO SMALLER VALUE TO HELP DEBUG!!

purgeWrite      0;

writeFormat     ascii;

writePrecision  8;

writeCompression off;

timeFormat      general;

timePrecision   6;

runTimeModifiable true;

libs
(
"libextraBCs.so"
);

functions
{
}

// ************************************************************************* //
