/*--------------------------------*- C++ -*----------------------------------*\
  =========                 |
  \\      /  F ield         | OpenFOAM: The Open Source CFD Toolbox
   \\    /   O peration     | Website:  https://openfoam.org
    \\  /    A nd           | Version:  6
     \\/     M anipulation  |
\*---------------------------------------------------------------------------*/
FoamFile
{
    version     2.0;
    format      ascii;
    class       dictionary;
    object      blockMeshDict;
}
// * * * * * * * * * * * * * * * * * * * * * * * * * * * * * * * * * * * * * //

convertToMeters 0.01;

vertices        
(
(0 4 0) // 0
(0 3 0) // 1
(3 3 0) // 2
(3 0 0) // 3
(4 0 0) // 4
(4 3 0) // 5
(7 3 0) // 6
(7 4 0) // 7
(4 4 0) // 8
(3 4 0) // 9
(0 4 0.1) // 10
(0 3 0.1) // 11
(3 3 0.1) // 12
(3 0 0.1) // 13
(4 0 0.1) // 14
(4 3 0.1) // 15
(7 3 0.1) // 16
(7 4 0.1) // 17
(4 4 0.1) // 18
(3 4 0.1) // 19
);

blocks          
(
hex (0 1 2 9 10 11 12 19) (40 100 1) simpleGrading (1 1 1)
hex (9 2 5 8 19 12 15 18) (40 40 1) simpleGrading (1 1 1)
hex (8 5 6 7 18 15 16 17) (40 100 1) simpleGrading (1 1 1)
hex (2 3 4 5 12 13 14 15) (75 40 1) simpleGrading (1 1 1)
);

edges
(
);

boundary
(
     inlet_additive
     {
         type wall;
         faces
        (
            (0 10 11 1)
        );
     }
    outlet
     {
         type wall;
         faces
        (
        (7 6 16 17)
        );
     }
     inlet_oil
     {
         type wall;
         faces
        (
        (4 3 13 14)            
        );
     }
        warm_walls    
    {
         type wall;
         faces
        (         
        (0 9 19 10)
        (9 8 18 19)        
        (2 1 11 12)
        (3 2 12 13)
        (5 4 14 15)        
        );
     }
   cold_walls
     {
         type wall;
         faces
        (
        (8 7 17 18)
         (6 5 15 16)
        );
     }
    frontAndBack
    {
    type empty;
    faces
    (
       (18 17 16 15)
        (5 6 7 8)
        (2 3 4 5)
        (2 5 8 9)
        (0 1 2 9)
        (10 19 12 11)
        (19 18 15 12)
        (15 14 13 12)
        );
    }
);

mergePatchPairs
(
);

