/*--------------------------------*- C++ -*----------------------------------*\
  =========                 |
  \\      /  F ield         | OpenFOAM: The Open Source CFD Toolbox
   \\    /   O peration     | Website:  https://openfoam.org
    \\  /    A nd           | Version:  6
     \\/     M anipulation  |
\*---------------------------------------------------------------------------*/
FoamFile
{
    version     2.0;
    format      ascii;
    class       dictionary;
    location    "system";
    object      fvSolution;
}
// * * * * * * * * * * * * * * * * * * * * * * * * * * * * * * * * * * * * * //

solvers
{
    alpha
    {
        solver          PBiCGStab;
        preconditioner  diagonal;
        tolerance       1e-8;
        relTol          0;
    }

    alphaFinal
    {
        $alpha;
    }

}

PIMPLE
{

    nNonOrthogonalCorrectors 1;
    nOuterCorrectors 300;

    outerCorrectorResidualControl
    {
        alpha
        {
            tolerance 1e-5;
            relTol    1e-4;
        }

        mu
        {
            tolerance 1e-5;
            relTol    1e-4;
        }

    }
}

relaxationFactors
{
    equations
    {
//       alpha    0.95;
//       alphaFinal 1;
       mu       1;
    }

    fields
    {
        alpha   0.7;
        alphaFinal 1;
        mu      1;
        muFinal 1;
    }

}

// ************************************************************************* //
