/*--------------------------------*- C++ -*----------------------------------*\
| =========                 |                                                 |
| \\      /  F ield         | OpenFOAM: The Open Source CFD Toolbox           |
|  \\    /   O peration     | Version:  2.3.x                                 |
|   \\  /    A nd           | Web:      www.OpenFOAM.org                      |
|    \\/     M anipulation  |                                                 |
\*---------------------------------------------------------------------------*/
FoamFile
{
    version     2.0;
    format      binary;
    class       volScalarField;
    location    "0";
    object      c;
}
// * * * * * * * * * * * * * * * * * * * * * * * * * * * * * * * * * * * * * //

dimensions      [0 0 0 0 0 0 0];

internalField   uniform 0.3;

boundaryField
{
    maxY
    {
        type            cyclic;
    }
    minX
    {
        type            cyclic;
    }
    maxX
    {
        type            cyclic;
    }
    minY
    {
        type            cyclic;
    }
    minZ
    {
        type            cyclic;
    }
    maxZ
    {
        type            cyclic;
    }
    pores
    {
        type            zeroGradient;
    }
}


// ************************************************************************* //
