/*--------------------------------*- C++ -*----------------------------------*\
  =========                 |
  \\      /  F ield         | OpenFOAM: The Open Source CFD Toolbox
   \\    /   O peration     | Website:  https://openfoam.org
    \\  /    A nd           | Version:  6
     \\/     M anipulation  |
\*---------------------------------------------------------------------------*/
FoamFile
{
    version     2.0;
    format      ascii;
    class       dictionary;
    location    "system";
    object      fvSolution;
}
// * * * * * * * * * * * * * * * * * * * * * * * * * * * * * * * * * * * * * //

solvers
{
    "mu|alpha"
    {
        solver          PCG;
        preconditioner  FDIC;
        tolerance       1e-12;
        relTol          1e-3;
    }
}

SIMPLE
{
    nNonOrthogonalCorrectors 0;
    
    residualControl
    {
    //    T       1e-10;
    }
}

relaxationFactors
{
equations
{
".*"   0.1;
}

fields
{
".*"   1;
}

}

// ************************************************************************* //
