/*--------------------------------*- C++ -*----------------------------------*\
  =========                 |
  \\      /  F ield         | OpenFOAM: The Open Source CFD Toolbox
   \\    /   O peration     | Website:  https://openfoam.org
    \\  /    A nd           | Version:  6
     \\/     M anipulation  |
\*---------------------------------------------------------------------------*/
FoamFile
{
    version     2.0;
    format      ascii;
    class       dictionary;
    location    "system";
    object      fvSolution;
}
// * * * * * * * * * * * * * * * * * * * * * * * * * * * * * * * * * * * * * //

solvers
{
    "mu.*|alpha.*"
    {
        solver          PBiCGStab;
        preconditioner  FDIC;
        tolerance       1e-12;
        relTol          1e-3;
    }
}

PIMPLE
{
    debugCH true;
    muRelax 0.5;
    alphaRelax 0.5;
    nNonOrthogonalCorrectors 50;
    nOuterCorrectors 100;
    /*
    outerCorrectorResidualControl
    {
        alpha
        {
            tolerance 1e-8;
            relTol    0;
        }

        mu
        {
            tolerance 1e-8;
            relTol    0;
        }

    }
    */
}

relaxationFactors
{
    equations
    {
       alpha    0.95;
       mu       1;
    }

    fields
    {
        alpha   1;
        mu      1;
    }

}

// ************************************************************************* //
