/*--------------------------------*- C++ -*----------------------------------*\
  =========                 |
  \\      /  F ield         | OpenFOAM: The Open Source CFD Toolbox
   \\    /   O peration     | Website:  https://openfoam.org
    \\  /    A nd           | Version:  6
     \\/     M anipulation  |
\*---------------------------------------------------------------------------*/
FoamFile
{
    version     2.0;
    format      ascii;
    class       dictionary;
    location    "constant";
    object      transportProperties;
}
// * * * * * * * * * * * * * * * * * * * * * * * * * * * * * * * * * * * * * //

M              M [0 2 -1 0 0 0 0] 1;
epsilon        epsilon [0 1 0 0 0 0 0] 0.05626976975;
W0             W0 [0 0 0 0 0 0 0] 1;
source         0;
average 1;
lagrangeCoeff      1;

// ************************************************************************* //
