/*--------------------------------*- C++ -*----------------------------------*\
  =========                 |
  \\      /  F ield         | OpenFOAM: The Open Source CFD Toolbox
   \\    /   O peration     | Website:  https://openfoam.org
    \\  /    A nd           | Version:  6
     \\/     M anipulation  |
\*---------------------------------------------------------------------------*/
FoamFile
{
    version     2.0;
    format      ascii;
    class       volScalarField;
    object      T;
}
// * * * * * * * * * * * * * * * * * * * * * * * * * * * * * * * * * * * * * //

#include "$FOAM_CASE/constant/initialConditions";

dimensions      [0 0 0 1 0 0 0];

internalField   uniform $Tinitial;

boundaryField
{
    inlet
    {
        type            zeroGradient;
    }

    outlet
    {
        type            zeroGradient;
        //inletValue      uniform $Tinitial;
        //value           uniform $Tinitial;
    }

    wall
    {
        type            mapped;
        value           uniform $Tinitial;
        setAverage      false;
        average         0;
    }

    externalWall
    {
        type           zeroGradient;
        //value          uniform $Tinitial;
    }
    
    #includeEtc "caseDicts/setConstraintTypes"
}


// ************************************************************************* //
