/*--------------------------------*- C++ -*----------------------------------*\
  =========                 |
  \\      /  F ield         | OpenFOAM: The Open Source CFD Toolbox
   \\    /   O peration     | Website:  https://openfoam.org
    \\  /    A nd           | Version:  6
     \\/     M anipulation  |
\*---------------------------------------------------------------------------*/
FoamFile
{
    version     2.0;
    format      ascii;
    class       volVectorField;
    object      U;
}
// * * * * * * * * * * * * * * * * * * * * * * * * * * * * * * * * * * * * * //

#include "$FOAM_CASE/constant/initialConditions";

dimensions      [0 1 -1 0 0 0 0];

internalField   uniform $Uinitial;

boundaryField
{
    inlet
    {
        type            zeroGradient;
        //type            fixedValue;
        //value           uniform $Uinitial;
    }

    outlet
    {
        type            zeroGradient;
        //type            fixedValue;
        //value           uniform $Uinitial;
    }

    wall
    {
        type            mapped;
        value           uniform (0 0 0);//$Uinitial;
        setAverage      false;
        average         (0 0 0);
        //type            fixedValue;
        //value           uniform $Uinitial;
    }

    externalWall
    {
        type            zeroGradient;
        //type           fixedValue;
        //value          uniform $Uinitial;
    }


    #includeEtc "caseDicts/setConstraintTypes"
}


// ************************************************************************* //
