/*--------------------------------*- C++ -*----------------------------------*\
  =========                 |
  \\      /  F ield         | OpenFOAM: The Open Source CFD Toolbox
   \\    /   O peration     | Website:  https://openfoam.org
    \\  /    A nd           | Version:  7
     \\/     M anipulation  |
\*---------------------------------------------------------------------------*/
FoamFile
{
    version     2.0;
    format      ascii;
    class       dictionary;
    location    "constant";
    object      electrokineticProperties;
}
// * * * * * * * * * * * * * * * * * * * * * * * * * * * * * * * * * * * * * //

epsilonR  epsilonR [ 0 0 0 0 0 0 0 ] 78.5;

electroNeutrality false;//true;

species
(
  C.Cl
  {
    Z     Z [0 0 0 0 0 0 0]       -1;
    D     D [0 2 -1 0 0 0 0]      2.032e-9;
  }
              //These values might need to be switched, supporiting info unclear
  C.Na
  {
    Z     Z [0 0 0 0 0 0 0]       1;
    D     D [0 2 -1 0 0 0 0]  	  1.334e-9;
  }
);


// ************************************************************************* //
